[root]
type=Root
children=system
eventq_index=0
full_system=true
sim_quantum=0
time_sync_enable=false
time_sync_period=100000000000
time_sync_spin_threshold=100000000

[system]
type=System
children=clk_domain cpu0 cpu1 cpu2 cpu3 cpu4 cpu5 cpu6 cpu7 cpu_clk_domain cpu_voltage_domain dvfs_handler intrctrl iobus mem_ctrls pc redirect_paths0 redirect_paths1 redirect_paths2 ruby sys_port_proxy voltage_domain workload
cache_line_size=64
eventq_index=0
exit_on_work_items=false
init_param=0
kvm_vm=Null
m5ops_base=4294901760
mem_mode=timing
mem_ranges=0:536870912
memories=system.mem_ctrls
mmap_using_noreserve=false
multi_thread=false
num_work_ids=16
readfile=./configs/parsec/blackscholes_8c_simsmall.rcS
redirect_paths=system.redirect_paths0 system.redirect_paths1 system.redirect_paths2
symbolfile=
thermal_components=
thermal_model=Null
work_begin_ckpt_count=0
work_begin_cpu_id_exit=-1
work_begin_exit_count=0
work_cpus_ckpt_count=0
work_end_ckpt_count=0
work_end_exit_count=0
work_item_id=-1
workload=system.workload
system_port=system.sys_port_proxy.slave[0]

[system.clk_domain]
type=SrcClockDomain
clock=1001
domain_id=-1
eventq_index=0
init_perf_level=0
voltage_domain=system.voltage_domain

[system.cpu0]
type=TimingSimpleCPU
children=dtb interrupts isa itb power_state tracer
branchPred=Null
checker=Null
clk_domain=system.cpu_clk_domain
cpu_id=0
do_checkpoint_insts=true
do_quiesce=true
do_statistics_insts=true
dtb=system.cpu0.dtb
eventq_index=0
function_trace=false
function_trace_start=0
interrupts=system.cpu0.interrupts
isa=system.cpu0.isa
itb=system.cpu0.itb
max_insts_all_threads=0
max_insts_any_thread=0
numThreads=1
power_gating_on_idle=false
power_model=
power_state=system.cpu0.power_state
profile=0
progress_interval=0
pwr_gating_latency=300
simpoint_start_insts=
socket_id=0
switched_out=false
syscallRetryLatency=10000
system=system
tracer=system.cpu0.tracer
wait_for_remote_gdb=false
workload=
dcache_port=system.ruby.l1_cntrl0.sequencer.slave[1]
icache_port=system.ruby.l1_cntrl0.sequencer.slave[0]

[system.cpu0.dtb]
type=X86TLB
children=walker
eventq_index=0
size=64
system=system
walker=system.cpu0.dtb.walker

[system.cpu0.dtb.walker]
type=X86PagetableWalker
children=power_state
clk_domain=system.cpu_clk_domain
eventq_index=0
num_squash_per_cycle=4
power_model=
power_state=system.cpu0.dtb.walker.power_state
system=system
port=system.ruby.l1_cntrl0.sequencer.slave[3]

[system.cpu0.dtb.walker.power_state]
type=PowerState
clk_gate_bins=20
clk_gate_max=1000000000000
clk_gate_min=1001
default_state=UNDEFINED
eventq_index=0
leaders=
possible_states=

[system.cpu0.interrupts]
type=X86LocalApic
children=clk_domain
clk_domain=system.cpu0.interrupts.clk_domain
eventq_index=0
int_latency=1001
pio_latency=100001
system=system
int_master=system.ruby.l1_cntrl0.sequencer.slave[4]
int_slave=system.ruby.l1_cntrl0.sequencer.master[1]
pio=system.ruby.l1_cntrl0.sequencer.master[0]

[system.cpu0.interrupts.clk_domain]
type=DerivedClockDomain
clk_divider=16
clk_domain=system.cpu_clk_domain
eventq_index=0

[system.cpu0.isa]
type=X86ISA
eventq_index=0

[system.cpu0.itb]
type=X86TLB
children=walker
eventq_index=0
size=64
system=system
walker=system.cpu0.itb.walker

[system.cpu0.itb.walker]
type=X86PagetableWalker
children=power_state
clk_domain=system.cpu_clk_domain
eventq_index=0
num_squash_per_cycle=4
power_model=
power_state=system.cpu0.itb.walker.power_state
system=system
port=system.ruby.l1_cntrl0.sequencer.slave[2]

[system.cpu0.itb.walker.power_state]
type=PowerState
clk_gate_bins=20
clk_gate_max=1000000000000
clk_gate_min=1001
default_state=UNDEFINED
eventq_index=0
leaders=
possible_states=

[system.cpu0.power_state]
type=PowerState
clk_gate_bins=20
clk_gate_max=1000000000000
clk_gate_min=1001
default_state=UNDEFINED
eventq_index=0
leaders=
possible_states=ON CLK_GATED OFF

[system.cpu0.tracer]
type=ExeTracer
eventq_index=0

[system.cpu1]
type=TimingSimpleCPU
children=dtb interrupts isa itb power_state tracer
branchPred=Null
checker=Null
clk_domain=system.cpu_clk_domain
cpu_id=1
do_checkpoint_insts=true
do_quiesce=true
do_statistics_insts=true
dtb=system.cpu1.dtb
eventq_index=0
function_trace=false
function_trace_start=0
interrupts=system.cpu1.interrupts
isa=system.cpu1.isa
itb=system.cpu1.itb
max_insts_all_threads=0
max_insts_any_thread=0
numThreads=1
power_gating_on_idle=false
power_model=
power_state=system.cpu1.power_state
profile=0
progress_interval=0
pwr_gating_latency=300
simpoint_start_insts=
socket_id=0
switched_out=false
syscallRetryLatency=10000
system=system
tracer=system.cpu1.tracer
wait_for_remote_gdb=false
workload=
dcache_port=system.ruby.l1_cntrl1.sequencer.slave[1]
icache_port=system.ruby.l1_cntrl1.sequencer.slave[0]

[system.cpu1.dtb]
type=X86TLB
children=walker
eventq_index=0
size=64
system=system
walker=system.cpu1.dtb.walker

[system.cpu1.dtb.walker]
type=X86PagetableWalker
children=power_state
clk_domain=system.cpu_clk_domain
eventq_index=0
num_squash_per_cycle=4
power_model=
power_state=system.cpu1.dtb.walker.power_state
system=system
port=system.ruby.l1_cntrl1.sequencer.slave[3]

[system.cpu1.dtb.walker.power_state]
type=PowerState
clk_gate_bins=20
clk_gate_max=1000000000000
clk_gate_min=1001
default_state=UNDEFINED
eventq_index=0
leaders=
possible_states=

[system.cpu1.interrupts]
type=X86LocalApic
children=clk_domain
clk_domain=system.cpu1.interrupts.clk_domain
eventq_index=0
int_latency=1001
pio_latency=100001
system=system
int_master=system.ruby.l1_cntrl1.sequencer.slave[4]
int_slave=system.ruby.l1_cntrl1.sequencer.master[1]
pio=system.ruby.l1_cntrl1.sequencer.master[0]

[system.cpu1.interrupts.clk_domain]
type=DerivedClockDomain
clk_divider=16
clk_domain=system.cpu_clk_domain
eventq_index=0

[system.cpu1.isa]
type=X86ISA
eventq_index=0

[system.cpu1.itb]
type=X86TLB
children=walker
eventq_index=0
size=64
system=system
walker=system.cpu1.itb.walker

[system.cpu1.itb.walker]
type=X86PagetableWalker
children=power_state
clk_domain=system.cpu_clk_domain
eventq_index=0
num_squash_per_cycle=4
power_model=
power_state=system.cpu1.itb.walker.power_state
system=system
port=system.ruby.l1_cntrl1.sequencer.slave[2]

[system.cpu1.itb.walker.power_state]
type=PowerState
clk_gate_bins=20
clk_gate_max=1000000000000
clk_gate_min=1001
default_state=UNDEFINED
eventq_index=0
leaders=
possible_states=

[system.cpu1.power_state]
type=PowerState
clk_gate_bins=20
clk_gate_max=1000000000000
clk_gate_min=1001
default_state=UNDEFINED
eventq_index=0
leaders=
possible_states=ON CLK_GATED OFF

[system.cpu1.tracer]
type=ExeTracer
eventq_index=0

[system.cpu2]
type=TimingSimpleCPU
children=dtb interrupts isa itb power_state tracer
branchPred=Null
checker=Null
clk_domain=system.cpu_clk_domain
cpu_id=2
do_checkpoint_insts=true
do_quiesce=true
do_statistics_insts=true
dtb=system.cpu2.dtb
eventq_index=0
function_trace=false
function_trace_start=0
interrupts=system.cpu2.interrupts
isa=system.cpu2.isa
itb=system.cpu2.itb
max_insts_all_threads=0
max_insts_any_thread=0
numThreads=1
power_gating_on_idle=false
power_model=
power_state=system.cpu2.power_state
profile=0
progress_interval=0
pwr_gating_latency=300
simpoint_start_insts=
socket_id=0
switched_out=false
syscallRetryLatency=10000
system=system
tracer=system.cpu2.tracer
wait_for_remote_gdb=false
workload=
dcache_port=system.ruby.l1_cntrl2.sequencer.slave[1]
icache_port=system.ruby.l1_cntrl2.sequencer.slave[0]

[system.cpu2.dtb]
type=X86TLB
children=walker
eventq_index=0
size=64
system=system
walker=system.cpu2.dtb.walker

[system.cpu2.dtb.walker]
type=X86PagetableWalker
children=power_state
clk_domain=system.cpu_clk_domain
eventq_index=0
num_squash_per_cycle=4
power_model=
power_state=system.cpu2.dtb.walker.power_state
system=system
port=system.ruby.l1_cntrl2.sequencer.slave[3]

[system.cpu2.dtb.walker.power_state]
type=PowerState
clk_gate_bins=20
clk_gate_max=1000000000000
clk_gate_min=1001
default_state=UNDEFINED
eventq_index=0
leaders=
possible_states=

[system.cpu2.interrupts]
type=X86LocalApic
children=clk_domain
clk_domain=system.cpu2.interrupts.clk_domain
eventq_index=0
int_latency=1001
pio_latency=100001
system=system
int_master=system.ruby.l1_cntrl2.sequencer.slave[4]
int_slave=system.ruby.l1_cntrl2.sequencer.master[1]
pio=system.ruby.l1_cntrl2.sequencer.master[0]

[system.cpu2.interrupts.clk_domain]
type=DerivedClockDomain
clk_divider=16
clk_domain=system.cpu_clk_domain
eventq_index=0

[system.cpu2.isa]
type=X86ISA
eventq_index=0

[system.cpu2.itb]
type=X86TLB
children=walker
eventq_index=0
size=64
system=system
walker=system.cpu2.itb.walker

[system.cpu2.itb.walker]
type=X86PagetableWalker
children=power_state
clk_domain=system.cpu_clk_domain
eventq_index=0
num_squash_per_cycle=4
power_model=
power_state=system.cpu2.itb.walker.power_state
system=system
port=system.ruby.l1_cntrl2.sequencer.slave[2]

[system.cpu2.itb.walker.power_state]
type=PowerState
clk_gate_bins=20
clk_gate_max=1000000000000
clk_gate_min=1001
default_state=UNDEFINED
eventq_index=0
leaders=
possible_states=

[system.cpu2.power_state]
type=PowerState
clk_gate_bins=20
clk_gate_max=1000000000000
clk_gate_min=1001
default_state=UNDEFINED
eventq_index=0
leaders=
possible_states=ON CLK_GATED OFF

[system.cpu2.tracer]
type=ExeTracer
eventq_index=0

[system.cpu3]
type=TimingSimpleCPU
children=dtb interrupts isa itb power_state tracer
branchPred=Null
checker=Null
clk_domain=system.cpu_clk_domain
cpu_id=3
do_checkpoint_insts=true
do_quiesce=true
do_statistics_insts=true
dtb=system.cpu3.dtb
eventq_index=0
function_trace=false
function_trace_start=0
interrupts=system.cpu3.interrupts
isa=system.cpu3.isa
itb=system.cpu3.itb
max_insts_all_threads=0
max_insts_any_thread=0
numThreads=1
power_gating_on_idle=false
power_model=
power_state=system.cpu3.power_state
profile=0
progress_interval=0
pwr_gating_latency=300
simpoint_start_insts=
socket_id=0
switched_out=false
syscallRetryLatency=10000
system=system
tracer=system.cpu3.tracer
wait_for_remote_gdb=false
workload=
dcache_port=system.ruby.l1_cntrl3.sequencer.slave[1]
icache_port=system.ruby.l1_cntrl3.sequencer.slave[0]

[system.cpu3.dtb]
type=X86TLB
children=walker
eventq_index=0
size=64
system=system
walker=system.cpu3.dtb.walker

[system.cpu3.dtb.walker]
type=X86PagetableWalker
children=power_state
clk_domain=system.cpu_clk_domain
eventq_index=0
num_squash_per_cycle=4
power_model=
power_state=system.cpu3.dtb.walker.power_state
system=system
port=system.ruby.l1_cntrl3.sequencer.slave[3]

[system.cpu3.dtb.walker.power_state]
type=PowerState
clk_gate_bins=20
clk_gate_max=1000000000000
clk_gate_min=1001
default_state=UNDEFINED
eventq_index=0
leaders=
possible_states=

[system.cpu3.interrupts]
type=X86LocalApic
children=clk_domain
clk_domain=system.cpu3.interrupts.clk_domain
eventq_index=0
int_latency=1001
pio_latency=100001
system=system
int_master=system.ruby.l1_cntrl3.sequencer.slave[4]
int_slave=system.ruby.l1_cntrl3.sequencer.master[1]
pio=system.ruby.l1_cntrl3.sequencer.master[0]

[system.cpu3.interrupts.clk_domain]
type=DerivedClockDomain
clk_divider=16
clk_domain=system.cpu_clk_domain
eventq_index=0

[system.cpu3.isa]
type=X86ISA
eventq_index=0

[system.cpu3.itb]
type=X86TLB
children=walker
eventq_index=0
size=64
system=system
walker=system.cpu3.itb.walker

[system.cpu3.itb.walker]
type=X86PagetableWalker
children=power_state
clk_domain=system.cpu_clk_domain
eventq_index=0
num_squash_per_cycle=4
power_model=
power_state=system.cpu3.itb.walker.power_state
system=system
port=system.ruby.l1_cntrl3.sequencer.slave[2]

[system.cpu3.itb.walker.power_state]
type=PowerState
clk_gate_bins=20
clk_gate_max=1000000000000
clk_gate_min=1001
default_state=UNDEFINED
eventq_index=0
leaders=
possible_states=

[system.cpu3.power_state]
type=PowerState
clk_gate_bins=20
clk_gate_max=1000000000000
clk_gate_min=1001
default_state=UNDEFINED
eventq_index=0
leaders=
possible_states=ON CLK_GATED OFF

[system.cpu3.tracer]
type=ExeTracer
eventq_index=0

[system.cpu4]
type=TimingSimpleCPU
children=dtb interrupts isa itb power_state tracer
branchPred=Null
checker=Null
clk_domain=system.cpu_clk_domain
cpu_id=4
do_checkpoint_insts=true
do_quiesce=true
do_statistics_insts=true
dtb=system.cpu4.dtb
eventq_index=0
function_trace=false
function_trace_start=0
interrupts=system.cpu4.interrupts
isa=system.cpu4.isa
itb=system.cpu4.itb
max_insts_all_threads=0
max_insts_any_thread=0
numThreads=1
power_gating_on_idle=false
power_model=
power_state=system.cpu4.power_state
profile=0
progress_interval=0
pwr_gating_latency=300
simpoint_start_insts=
socket_id=0
switched_out=false
syscallRetryLatency=10000
system=system
tracer=system.cpu4.tracer
wait_for_remote_gdb=false
workload=
dcache_port=system.ruby.l1_cntrl4.sequencer.slave[1]
icache_port=system.ruby.l1_cntrl4.sequencer.slave[0]

[system.cpu4.dtb]
type=X86TLB
children=walker
eventq_index=0
size=64
system=system
walker=system.cpu4.dtb.walker

[system.cpu4.dtb.walker]
type=X86PagetableWalker
children=power_state
clk_domain=system.cpu_clk_domain
eventq_index=0
num_squash_per_cycle=4
power_model=
power_state=system.cpu4.dtb.walker.power_state
system=system
port=system.ruby.l1_cntrl4.sequencer.slave[3]

[system.cpu4.dtb.walker.power_state]
type=PowerState
clk_gate_bins=20
clk_gate_max=1000000000000
clk_gate_min=1001
default_state=UNDEFINED
eventq_index=0
leaders=
possible_states=

[system.cpu4.interrupts]
type=X86LocalApic
children=clk_domain
clk_domain=system.cpu4.interrupts.clk_domain
eventq_index=0
int_latency=1001
pio_latency=100001
system=system
int_master=system.ruby.l1_cntrl4.sequencer.slave[4]
int_slave=system.ruby.l1_cntrl4.sequencer.master[1]
pio=system.ruby.l1_cntrl4.sequencer.master[0]

[system.cpu4.interrupts.clk_domain]
type=DerivedClockDomain
clk_divider=16
clk_domain=system.cpu_clk_domain
eventq_index=0

[system.cpu4.isa]
type=X86ISA
eventq_index=0

[system.cpu4.itb]
type=X86TLB
children=walker
eventq_index=0
size=64
system=system
walker=system.cpu4.itb.walker

[system.cpu4.itb.walker]
type=X86PagetableWalker
children=power_state
clk_domain=system.cpu_clk_domain
eventq_index=0
num_squash_per_cycle=4
power_model=
power_state=system.cpu4.itb.walker.power_state
system=system
port=system.ruby.l1_cntrl4.sequencer.slave[2]

[system.cpu4.itb.walker.power_state]
type=PowerState
clk_gate_bins=20
clk_gate_max=1000000000000
clk_gate_min=1001
default_state=UNDEFINED
eventq_index=0
leaders=
possible_states=

[system.cpu4.power_state]
type=PowerState
clk_gate_bins=20
clk_gate_max=1000000000000
clk_gate_min=1001
default_state=UNDEFINED
eventq_index=0
leaders=
possible_states=ON CLK_GATED OFF

[system.cpu4.tracer]
type=ExeTracer
eventq_index=0

[system.cpu5]
type=TimingSimpleCPU
children=dtb interrupts isa itb power_state tracer
branchPred=Null
checker=Null
clk_domain=system.cpu_clk_domain
cpu_id=5
do_checkpoint_insts=true
do_quiesce=true
do_statistics_insts=true
dtb=system.cpu5.dtb
eventq_index=0
function_trace=false
function_trace_start=0
interrupts=system.cpu5.interrupts
isa=system.cpu5.isa
itb=system.cpu5.itb
max_insts_all_threads=0
max_insts_any_thread=0
numThreads=1
power_gating_on_idle=false
power_model=
power_state=system.cpu5.power_state
profile=0
progress_interval=0
pwr_gating_latency=300
simpoint_start_insts=
socket_id=0
switched_out=false
syscallRetryLatency=10000
system=system
tracer=system.cpu5.tracer
wait_for_remote_gdb=false
workload=
dcache_port=system.ruby.l1_cntrl5.sequencer.slave[1]
icache_port=system.ruby.l1_cntrl5.sequencer.slave[0]

[system.cpu5.dtb]
type=X86TLB
children=walker
eventq_index=0
size=64
system=system
walker=system.cpu5.dtb.walker

[system.cpu5.dtb.walker]
type=X86PagetableWalker
children=power_state
clk_domain=system.cpu_clk_domain
eventq_index=0
num_squash_per_cycle=4
power_model=
power_state=system.cpu5.dtb.walker.power_state
system=system
port=system.ruby.l1_cntrl5.sequencer.slave[3]

[system.cpu5.dtb.walker.power_state]
type=PowerState
clk_gate_bins=20
clk_gate_max=1000000000000
clk_gate_min=1001
default_state=UNDEFINED
eventq_index=0
leaders=
possible_states=

[system.cpu5.interrupts]
type=X86LocalApic
children=clk_domain
clk_domain=system.cpu5.interrupts.clk_domain
eventq_index=0
int_latency=1001
pio_latency=100001
system=system
int_master=system.ruby.l1_cntrl5.sequencer.slave[4]
int_slave=system.ruby.l1_cntrl5.sequencer.master[1]
pio=system.ruby.l1_cntrl5.sequencer.master[0]

[system.cpu5.interrupts.clk_domain]
type=DerivedClockDomain
clk_divider=16
clk_domain=system.cpu_clk_domain
eventq_index=0

[system.cpu5.isa]
type=X86ISA
eventq_index=0

[system.cpu5.itb]
type=X86TLB
children=walker
eventq_index=0
size=64
system=system
walker=system.cpu5.itb.walker

[system.cpu5.itb.walker]
type=X86PagetableWalker
children=power_state
clk_domain=system.cpu_clk_domain
eventq_index=0
num_squash_per_cycle=4
power_model=
power_state=system.cpu5.itb.walker.power_state
system=system
port=system.ruby.l1_cntrl5.sequencer.slave[2]

[system.cpu5.itb.walker.power_state]
type=PowerState
clk_gate_bins=20
clk_gate_max=1000000000000
clk_gate_min=1001
default_state=UNDEFINED
eventq_index=0
leaders=
possible_states=

[system.cpu5.power_state]
type=PowerState
clk_gate_bins=20
clk_gate_max=1000000000000
clk_gate_min=1001
default_state=UNDEFINED
eventq_index=0
leaders=
possible_states=ON CLK_GATED OFF

[system.cpu5.tracer]
type=ExeTracer
eventq_index=0

[system.cpu6]
type=TimingSimpleCPU
children=dtb interrupts isa itb power_state tracer
branchPred=Null
checker=Null
clk_domain=system.cpu_clk_domain
cpu_id=6
do_checkpoint_insts=true
do_quiesce=true
do_statistics_insts=true
dtb=system.cpu6.dtb
eventq_index=0
function_trace=false
function_trace_start=0
interrupts=system.cpu6.interrupts
isa=system.cpu6.isa
itb=system.cpu6.itb
max_insts_all_threads=0
max_insts_any_thread=0
numThreads=1
power_gating_on_idle=false
power_model=
power_state=system.cpu6.power_state
profile=0
progress_interval=0
pwr_gating_latency=300
simpoint_start_insts=
socket_id=0
switched_out=false
syscallRetryLatency=10000
system=system
tracer=system.cpu6.tracer
wait_for_remote_gdb=false
workload=
dcache_port=system.ruby.l1_cntrl6.sequencer.slave[1]
icache_port=system.ruby.l1_cntrl6.sequencer.slave[0]

[system.cpu6.dtb]
type=X86TLB
children=walker
eventq_index=0
size=64
system=system
walker=system.cpu6.dtb.walker

[system.cpu6.dtb.walker]
type=X86PagetableWalker
children=power_state
clk_domain=system.cpu_clk_domain
eventq_index=0
num_squash_per_cycle=4
power_model=
power_state=system.cpu6.dtb.walker.power_state
system=system
port=system.ruby.l1_cntrl6.sequencer.slave[3]

[system.cpu6.dtb.walker.power_state]
type=PowerState
clk_gate_bins=20
clk_gate_max=1000000000000
clk_gate_min=1001
default_state=UNDEFINED
eventq_index=0
leaders=
possible_states=

[system.cpu6.interrupts]
type=X86LocalApic
children=clk_domain
clk_domain=system.cpu6.interrupts.clk_domain
eventq_index=0
int_latency=1001
pio_latency=100001
system=system
int_master=system.ruby.l1_cntrl6.sequencer.slave[4]
int_slave=system.ruby.l1_cntrl6.sequencer.master[1]
pio=system.ruby.l1_cntrl6.sequencer.master[0]

[system.cpu6.interrupts.clk_domain]
type=DerivedClockDomain
clk_divider=16
clk_domain=system.cpu_clk_domain
eventq_index=0

[system.cpu6.isa]
type=X86ISA
eventq_index=0

[system.cpu6.itb]
type=X86TLB
children=walker
eventq_index=0
size=64
system=system
walker=system.cpu6.itb.walker

[system.cpu6.itb.walker]
type=X86PagetableWalker
children=power_state
clk_domain=system.cpu_clk_domain
eventq_index=0
num_squash_per_cycle=4
power_model=
power_state=system.cpu6.itb.walker.power_state
system=system
port=system.ruby.l1_cntrl6.sequencer.slave[2]

[system.cpu6.itb.walker.power_state]
type=PowerState
clk_gate_bins=20
clk_gate_max=1000000000000
clk_gate_min=1001
default_state=UNDEFINED
eventq_index=0
leaders=
possible_states=

[system.cpu6.power_state]
type=PowerState
clk_gate_bins=20
clk_gate_max=1000000000000
clk_gate_min=1001
default_state=UNDEFINED
eventq_index=0
leaders=
possible_states=ON CLK_GATED OFF

[system.cpu6.tracer]
type=ExeTracer
eventq_index=0

[system.cpu7]
type=TimingSimpleCPU
children=dtb interrupts isa itb power_state tracer
branchPred=Null
checker=Null
clk_domain=system.cpu_clk_domain
cpu_id=7
do_checkpoint_insts=true
do_quiesce=true
do_statistics_insts=true
dtb=system.cpu7.dtb
eventq_index=0
function_trace=false
function_trace_start=0
interrupts=system.cpu7.interrupts
isa=system.cpu7.isa
itb=system.cpu7.itb
max_insts_all_threads=0
max_insts_any_thread=0
numThreads=1
power_gating_on_idle=false
power_model=
power_state=system.cpu7.power_state
profile=0
progress_interval=0
pwr_gating_latency=300
simpoint_start_insts=
socket_id=0
switched_out=false
syscallRetryLatency=10000
system=system
tracer=system.cpu7.tracer
wait_for_remote_gdb=false
workload=
dcache_port=system.ruby.l1_cntrl7.sequencer.slave[1]
icache_port=system.ruby.l1_cntrl7.sequencer.slave[0]

[system.cpu7.dtb]
type=X86TLB
children=walker
eventq_index=0
size=64
system=system
walker=system.cpu7.dtb.walker

[system.cpu7.dtb.walker]
type=X86PagetableWalker
children=power_state
clk_domain=system.cpu_clk_domain
eventq_index=0
num_squash_per_cycle=4
power_model=
power_state=system.cpu7.dtb.walker.power_state
system=system
port=system.ruby.l1_cntrl7.sequencer.slave[3]

[system.cpu7.dtb.walker.power_state]
type=PowerState
clk_gate_bins=20
clk_gate_max=1000000000000
clk_gate_min=1001
default_state=UNDEFINED
eventq_index=0
leaders=
possible_states=

[system.cpu7.interrupts]
type=X86LocalApic
children=clk_domain
clk_domain=system.cpu7.interrupts.clk_domain
eventq_index=0
int_latency=1001
pio_latency=100001
system=system
int_master=system.ruby.l1_cntrl7.sequencer.slave[4]
int_slave=system.ruby.l1_cntrl7.sequencer.master[1]
pio=system.ruby.l1_cntrl7.sequencer.master[0]

[system.cpu7.interrupts.clk_domain]
type=DerivedClockDomain
clk_divider=16
clk_domain=system.cpu_clk_domain
eventq_index=0

[system.cpu7.isa]
type=X86ISA
eventq_index=0

[system.cpu7.itb]
type=X86TLB
children=walker
eventq_index=0
size=64
system=system
walker=system.cpu7.itb.walker

[system.cpu7.itb.walker]
type=X86PagetableWalker
children=power_state
clk_domain=system.cpu_clk_domain
eventq_index=0
num_squash_per_cycle=4
power_model=
power_state=system.cpu7.itb.walker.power_state
system=system
port=system.ruby.l1_cntrl7.sequencer.slave[2]

[system.cpu7.itb.walker.power_state]
type=PowerState
clk_gate_bins=20
clk_gate_max=1000000000000
clk_gate_min=1001
default_state=UNDEFINED
eventq_index=0
leaders=
possible_states=

[system.cpu7.power_state]
type=PowerState
clk_gate_bins=20
clk_gate_max=1000000000000
clk_gate_min=1001
default_state=UNDEFINED
eventq_index=0
leaders=
possible_states=ON CLK_GATED OFF

[system.cpu7.tracer]
type=ExeTracer
eventq_index=0

[system.cpu_clk_domain]
type=SrcClockDomain
clock=501
domain_id=-1
eventq_index=0
init_perf_level=0
voltage_domain=system.cpu_voltage_domain

[system.cpu_voltage_domain]
type=VoltageDomain
eventq_index=0
voltage=1.0

[system.dvfs_handler]
type=DVFSHandler
domains=
enable=false
eventq_index=0
sys_clk_domain=system.clk_domain
transition_latency=100000000

[system.intrctrl]
type=IntrControl
eventq_index=0
sys=system

[system.iobus]
type=NoncoherentXBar
children=power_state
clk_domain=system.clk_domain
eventq_index=0
forward_latency=1
frontend_latency=2
power_model=
power_state=system.iobus.power_state
response_latency=2
use_default_range=false
width=16
default=system.pc.pci_host.pio
master=system.pc.south_bridge.cmos.pio system.pc.south_bridge.dma1.pio system.pc.south_bridge.ide.pio system.pc.south_bridge.keyboard.pio system.pc.south_bridge.pic1.pio system.pc.south_bridge.pic2.pio system.pc.south_bridge.pit.pio system.pc.south_bridge.speaker.pio system.pc.south_bridge.io_apic.pio system.pc.i_dont_exist1.pio system.pc.i_dont_exist2.pio system.pc.behind_pci.pio system.pc.com_1.pio system.pc.fake_com_2.pio system.pc.fake_com_3.pio system.pc.fake_com_4.pio system.pc.fake_floppy.pio system.ruby.l1_cntrl0.sequencer.pio_slave_port system.ruby.l1_cntrl1.sequencer.pio_slave_port system.ruby.l1_cntrl2.sequencer.pio_slave_port system.ruby.l1_cntrl3.sequencer.pio_slave_port system.ruby.l1_cntrl4.sequencer.pio_slave_port system.ruby.l1_cntrl5.sequencer.pio_slave_port system.ruby.l1_cntrl6.sequencer.pio_slave_port system.ruby.l1_cntrl7.sequencer.pio_slave_port system.ruby.io_controller.dma_sequencer.slave[0]
slave=system.pc.south_bridge.io_apic.int_master system.sys_port_proxy.pio_master_port system.ruby.l1_cntrl0.sequencer.pio_master_port system.ruby.l1_cntrl0.sequencer.mem_master_port system.ruby.l1_cntrl1.sequencer.pio_master_port system.ruby.l1_cntrl1.sequencer.mem_master_port system.ruby.l1_cntrl2.sequencer.pio_master_port system.ruby.l1_cntrl2.sequencer.mem_master_port system.ruby.l1_cntrl3.sequencer.pio_master_port system.ruby.l1_cntrl3.sequencer.mem_master_port system.ruby.l1_cntrl4.sequencer.pio_master_port system.ruby.l1_cntrl4.sequencer.mem_master_port system.ruby.l1_cntrl5.sequencer.pio_master_port system.ruby.l1_cntrl5.sequencer.mem_master_port system.ruby.l1_cntrl6.sequencer.pio_master_port system.ruby.l1_cntrl6.sequencer.mem_master_port system.ruby.l1_cntrl7.sequencer.pio_master_port system.ruby.l1_cntrl7.sequencer.mem_master_port

[system.iobus.power_state]
type=PowerState
clk_gate_bins=20
clk_gate_max=1000000000000
clk_gate_min=1001
default_state=UNDEFINED
eventq_index=0
leaders=
possible_states=

[system.mem_ctrls]
type=DRAMCtrl
children=power_state
IDD0=0.055
IDD02=0.0
IDD2N=0.032
IDD2N2=0.0
IDD2P0=0.0
IDD2P02=0.0
IDD2P1=0.032
IDD2P12=0.0
IDD3N=0.038
IDD3N2=0.0
IDD3P0=0.0
IDD3P02=0.0
IDD3P1=0.038
IDD3P12=0.0
IDD4R=0.157
IDD4R2=0.0
IDD4W=0.125
IDD4W2=0.0
IDD5=0.235
IDD52=0.0
IDD6=0.02
IDD62=0.0
VDD=1.5
VDD2=0.0
activation_limit=4
addr_mapping=RoRaBaCoCh
bank_groups_per_rank=0
banks_per_rank=8
beats_per_clock=2
burst_length=8
clk_domain=system.clk_domain
conf_table_reported=true
data_clock_sync=false
device_bus_width=8
device_rowbuffer_size=1024
device_size=536870912
devices_per_rank=8
dll=true
enable_dram_powerdown=false
eventq_index=0
image_file=
in_addr_map=true
kvm_map=true
max_accesses_per_row=16
mem_sched_policy=frfcfs
min_writes_per_switch=16
null=false
page_policy=open_adaptive
power_model=
power_state=system.mem_ctrls.power_state
qos_masters=               
qos_policy=Null
qos_priorities=1
qos_priority_escalation=false
qos_q_policy=fifo
qos_syncro_scheduler=false
qos_turnaround_policy=Null
range=0:536870912
ranks_per_channel=2
read_buffer_size=32
static_backend_latency=10000
static_frontend_latency=10000
tAAD=1250
tBURST=5000
tBURST_MAX=5000
tBURST_MIN=5000
tCCD_L=0
tCCD_L_WR=0
tCK=1250
tCL=13750
tCS=2500
tPPD=0
tRAS=35000
tRCD=13750
tREFI=7800000
tRFC=260000
tRP=13750
tRRD=6001
tRRD_L=0
tRTP=7501
tRTW=2500
tWR=15001
tWTR=7501
tWTR_L=7501
tXAW=30001
tXP=6001
tXPDLL=0
tXS=270000
tXSDLL=0
two_cycle_activate=false
write_buffer_size=64
write_high_thresh_perc=85
write_low_thresh_perc=50
port=system.ruby.dir_cntrl0.memory

[system.mem_ctrls.power_state]
type=PowerState
clk_gate_bins=20
clk_gate_max=1000000000000
clk_gate_min=1001
default_state=UNDEFINED
eventq_index=0
leaders=
possible_states=

[system.pc]
type=Pc
children=behind_pci com_1 fake_com_2 fake_com_3 fake_com_4 fake_floppy i_dont_exist1 i_dont_exist2 pci_host south_bridge
eventq_index=0
intrctrl=system.intrctrl
system=system

[system.pc.behind_pci]
type=IsaFake
children=power_state
clk_domain=system.clk_domain
eventq_index=0
fake_mem=false
pio_addr=9223372036854779128
pio_latency=100001
pio_size=8
power_model=
power_state=system.pc.behind_pci.power_state
ret_bad_addr=false
ret_data16=65535
ret_data32=4294967295
ret_data64=18446744073709551615
ret_data8=255
system=system
update_data=false
warn_access=
pio=system.iobus.master[11]

[system.pc.behind_pci.power_state]
type=PowerState
clk_gate_bins=20
clk_gate_max=1000000000000
clk_gate_min=1001
default_state=UNDEFINED
eventq_index=0
leaders=
possible_states=

[system.pc.com_1]
type=Uart8250
children=device power_state
clk_domain=system.clk_domain
device=system.pc.com_1.device
eventq_index=0
pio_addr=9223372036854776824
pio_latency=100001
platform=system.pc
power_model=
power_state=system.pc.com_1.power_state
system=system
pio=system.iobus.master[12]

[system.pc.com_1.device]
type=Terminal
eventq_index=0
number=0
outfile=file
port=3456

[system.pc.com_1.power_state]
type=PowerState
clk_gate_bins=20
clk_gate_max=1000000000000
clk_gate_min=1001
default_state=UNDEFINED
eventq_index=0
leaders=
possible_states=

[system.pc.fake_com_2]
type=IsaFake
children=power_state
clk_domain=system.clk_domain
eventq_index=0
fake_mem=false
pio_addr=9223372036854776568
pio_latency=100001
pio_size=8
power_model=
power_state=system.pc.fake_com_2.power_state
ret_bad_addr=false
ret_data16=65535
ret_data32=4294967295
ret_data64=18446744073709551615
ret_data8=255
system=system
update_data=false
warn_access=
pio=system.iobus.master[13]

[system.pc.fake_com_2.power_state]
type=PowerState
clk_gate_bins=20
clk_gate_max=1000000000000
clk_gate_min=1001
default_state=UNDEFINED
eventq_index=0
leaders=
possible_states=

[system.pc.fake_com_3]
type=IsaFake
children=power_state
clk_domain=system.clk_domain
eventq_index=0
fake_mem=false
pio_addr=9223372036854776808
pio_latency=100001
pio_size=8
power_model=
power_state=system.pc.fake_com_3.power_state
ret_bad_addr=false
ret_data16=65535
ret_data32=4294967295
ret_data64=18446744073709551615
ret_data8=255
system=system
update_data=false
warn_access=
pio=system.iobus.master[14]

[system.pc.fake_com_3.power_state]
type=PowerState
clk_gate_bins=20
clk_gate_max=1000000000000
clk_gate_min=1001
default_state=UNDEFINED
eventq_index=0
leaders=
possible_states=

[system.pc.fake_com_4]
type=IsaFake
children=power_state
clk_domain=system.clk_domain
eventq_index=0
fake_mem=false
pio_addr=9223372036854776552
pio_latency=100001
pio_size=8
power_model=
power_state=system.pc.fake_com_4.power_state
ret_bad_addr=false
ret_data16=65535
ret_data32=4294967295
ret_data64=18446744073709551615
ret_data8=255
system=system
update_data=false
warn_access=
pio=system.iobus.master[15]

[system.pc.fake_com_4.power_state]
type=PowerState
clk_gate_bins=20
clk_gate_max=1000000000000